T44/data_conversion/HR/HR_Tx_03_2020_new_Zagreb/Location3.raw
0,   100.00, 33, 0, 1, 50.00     / PSS(R)E 33 RAW created by rawd33  FRI, MAR 26 2021   8:39
CREATED BY NETVISION RAW CONVERTER FROM FILES: NDC_2020-09-2
, BEGIN BUS DATA
     1,'BUS1        ', 400.0000,3,   8,   1,   1,1.05185,   0.0000,1.10000,0.90000,1.10000,0.90000
     2,'BUS2        ', 220.0000,1,   8,   1,   1,1.08856,   0.4333,1.10000,0.90000,1.10000,0.90000
     3,'BUS3        ', 220.0000,1,   8,   1,   1,1.09418,   0.0635,1.10000,0.90000,1.10000,0.90000
     4,'BUS4        ', 110.0000,1,   8,   1,   1,1.06347,  -1.7595,1.10000,0.90000,1.10000,0.90000
     5,'BUS5        ', 110.0000,1,   8,   1,   1,1.06483,  -1.7576,1.10000,0.90000,1.10000,0.90000
     6,'BUS6        ', 110.0000,1,   8,   1,   1,1.06424,  -1.7901,1.10000,0.90000,1.10000,0.90000
     7,'BUS7        ', 110.0000,1,   8,   1,   1,1.06822,  -1.7966,1.10000,0.90000,1.10000,0.90000
     8,'BUS8        ', 110.0000,1,   8,   1,   1,1.06365,  -1.4249,1.10000,0.90000,1.10000,0.90000
     9,'BUS9        ', 110.0000,1,   8,   1,   1,1.06413,  -1.6129,1.10000,0.90000,1.10000,0.90000
    10,'BUS10       ', 110.0000,2,   8,   1,   1,1.07000,  -1.5764,1.10000,0.90000,1.10000,0.90000
 0 /End of Bus data, Begin Load data
     2,'1 ',1,   8,   1,     0.000,    96.300,     0.000,     0.000,     0.000,     0.000,   1,1,0
     2,'99',1,   8,   1,  -140.100,   -44.000,     0.000,     0.000,     0.000,     0.000,   1,1,0
     3,'99',1,   8,   1,    -3.200,    18.700,     0.000,     0.000,     0.000,     0.000,   1,1,0
     4,'1 ',1,   8,   1,    18.600,     5.400,     0.000,     0.000,     0.000,     0.000,   1,1,0
     4,'2 ',1,   8,   1,    15.400,     4.900,     0.000,     0.000,     0.000,     0.000,   1,1,0
     4,'99',1,   8,   1,    19.900,    -0.600,     0.000,     0.000,     0.000,     0.000,   1,1,0
     5,'1 ',1,   8,   1,     1.200,     0.000,     0.000,     0.000,     0.000,     0.000,   1,1,0
     5,'2 ',1,   8,   1,     0.000,     0.000,     0.000,     0.000,     0.000,     0.000,   1,1,0
     5,'99',1,   8,   1,   115.200,   -14.800,     0.000,     0.000,     0.000,     0.000,   1,1,0
     6,'1 ',1,   8,   1,    27.500,     4.800,     0.000,     0.000,     0.000,     0.000,   1,1,0
     6,'2 ',1,   8,   1,    18.600,     1.500,     0.000,     0.000,     0.000,     0.000,   1,1,0
     6,'3 ',1,   8,   1,     1.500,     0.500,     0.000,     0.000,     0.000,     0.000,   1,1,0
     6,'4 ',1,   8,   1,     1.300,     0.100,     0.000,     0.000,     0.000,     0.000,   1,1,0
     6,'99',1,   8,   1,    10.700,     5.100,     0.000,     0.000,     0.000,     0.000,   1,1,0
     7,'1 ',1,   8,   1,    13.800,     3.100,     0.000,     0.000,     0.000,     0.000,   1,1,0
     7,'2 ',1,   8,   1,     8.400,     1.700,     0.000,     0.000,     0.000,     0.000,   1,1,0
     8,'1 ',1,   8,   1,     5.400,    -3.700,     0.000,     0.000,     0.000,     0.000,   1,1,0
     8,'99',1,   8,   1,    46.000,     8.400,     0.000,     0.000,     0.000,     0.000,   1,1,0
     9,'1 ',1,   8,   1,     0.400,    -1.700,     0.000,     0.000,     0.000,     0.000,   1,1,0
    10,'1 ',1,   8,   1,    23.000,     5.600,     0.000,     0.000,     0.000,     0.000,   1,1,0
    10,'2 ',1,   8,   1,     5.600,    -1.700,     0.000,     0.000,     0.000,     0.000,   1,1,0
    10,'3 ',1,   8,   1,     3.700,     2.700,     0.000,     0.000,     0.000,     0.000,   1,1,0
 0 /End of Load data, Begin Fixed shunt data
 0 /End of Fixed shunt data, Begin Generator data
     1,'1 ',    95.224,    44.966,  9999.000, -9999.000,1.05185,     0,   100.000, 0.00000E+0, 1.00000E+0, 0.00000E+0, 0.00000E+0,1.00000,1,  100.0,  9999.000, -9999.000,   1,1.0000
    10,'1 ',    54.464,    26.246,    79.000,   -27.000,1.07000,     0,    86.000, 0.00000E+0, 2.00000E-1, 0.00000E+0, 1.00000E-1,1.00000,1,  100.0,    72.000,    30.000,   1,1.0000
    10,'2 ',    32.085,    15.461,    50.000,   -10.000,1.07000,     0,    83.000, 0.00000E+0, 1.70000E-1, 0.00000E+0, 1.00000E-1,1.00000,1,  100.0,    78.000,    16.000,   1,1.0000
    10,'3 ',    11.951,     5.759,    19.000,   -34.400,1.07000,     0,    47.600, 0.00000E+0, 1.50000E-1, 0.00000E+0, 1.08000E-1,1.00000,1,  100.0,    40.000,    12.000,   1,1.0000
 0 /End of Generator data, Begin Branch data
     2,     3,'1 ', 4.36364E-3, 2.23636E-2,   0.03552,  311.00,    0.00,    0.00,  0.00000,  0.00000,  0.00000,  0.00000,1,2,  26.40,   1,1.0000
     4,     6,'1 ', 3.38843E-3, 1.14876E-2,   0.00111,  123.00,    0.00,    0.00,  0.00000,  0.00000,  0.00000,  0.00000,1,1,   3.40,   1,1.0000
     4,     6,'2 ', 3.38843E-3, 1.18182E-2,   0.00112,  123.00,    0.00,    0.00,  0.00000,  0.00000,  0.00000,  0.00000,1,1,   3.40,   1,1.0000
     4,     8,'1 ', 3.00826E-3, 2.18099E-2,   0.00396,  300.00,    0.00,    0.00,  0.00000,  0.00000,  0.00000,  0.00000,1,2,   9.10,   1,1.0000
     4,     8,'2 ', 3.00826E-3, 2.18099E-2,   0.00396,  300.00,    0.00,    0.00,  0.00000,  0.00000,  0.00000,  0.00000,1,2,   9.10,   1,1.0000
     5,     6,'1 ', 2.11240E-2, 7.39339E-2,   0.00701,  123.00,    0.00,    0.00,  0.00000,  0.00000,  0.00000,  0.00000,1,1,  21.30,   1,1.0000
     5,     6,'2 ', 2.11240E-2, 7.39339E-2,   0.00701,  123.00,    0.00,    0.00,  0.00000,  0.00000,  0.00000,  0.00000,1,1,  21.30,   1,1.0000
     5,    10,'1 ', 1.37355E-2, 6.86777E-2,   0.01213,  230.00,    0.00,    0.00,  0.00000,  0.00000,  0.00000,  0.00000,1,1,  27.70,   1,1.0000
     6,     9,'1 ', 6.44628E-3, 2.20248E-2,   0.00216,  123.00,    0.00,    0.00,  0.00000,  0.00000,  0.00000,  0.00000,1,2,   6.50,   1,1.0000
     6,    10,'1 ', 8.72727E-3, 2.98182E-2,   0.00289,  123.00,    0.00,    0.00,  0.00000,  0.00000,  0.00000,  0.00000,1,1,   8.80,   1,1.0000
     6,    10,'2 ', 8.72727E-3, 2.98182E-2,   0.00289,  123.00,    0.00,    0.00,  0.00000,  0.00000,  0.00000,  0.00000,1,1,   8.80,   1,1.0000
     7,    10,'1 ', 4.13223E-3, 2.06612E-2,   0.00151,  140.00,    0.00,    0.00,  0.00000,  0.00000,  0.00000,  0.00000,1,1,   5.00,   1,1.0000
     8,     9,'1 ', 6.44628E-3, 2.20248E-2,   0.00216,  123.00,    0.00,    0.00,  0.00000,  0.00000,  0.00000,  0.00000,1,1,   6.50,   1,1.0000
 0 /End of Branch data, Begin Transformer data
     1,     3,     0,'1 ',2,1,1, 6.16000E-4, 0.00000E+0,1,'            ',1,   1,1.0000,   0,1.0000,   0,1.0000,   0,1.0000,'            '
 3.64560E-4, 3.17479E-2,   400.00
398.000, 400.000,   0.460,   400.00,     0.00,     0.00, 0,      0, 1.10000, 0.90000, 1.10000, 0.90000,  25, 0, 0.00000, 0.00000,  0.000
231.000, 220.000
     1,     8,     0,'1 ',2,1,1, 9.12000E-4, 0.00000E+0,1,'            ',1,   1,1.0000,   0,1.0000,   0,1.0000,   0,1.0000,'            '
 5.26330E-4, 4.07299E-2,   300.00
414.000, 400.000,   0.000,   300.00,     0.00,     0.00, 0,      0, 1.10000, 0.90000, 1.10000, 0.90000,  25, 0, 0.00000, 0.00000,  0.000
115.000, 110.000
     1,     8,     0,'2 ',2,1,1, 8.98000E-4, 0.00000E+0,1,'            ',1,   1,1.0000,   0,1.0000,   0,1.0000,   0,1.0000,'            '
 5.42330E-4, 4.07964E-2,   300.00
414.000, 400.000,   0.000,   300.00,     0.00,     0.00, 0,      0, 1.10000, 0.90000, 1.10000, 0.90000,  25, 0, 0.00000, 0.00000,  0.000
115.000, 110.000
     2,     5,     0,'1 ',2,1,1, 5.27000E-4, 0.00000E+0,1,'            ',1,   1,1.0000,   0,1.0000,   0,1.0000,   0,1.0000,'            '
 1.54622E-3, 7.03830E-2,   150.00
236.500, 220.000,   0.000,   150.00,     0.00,     0.00, 0,      0, 1.10000, 0.90000, 1.10000, 0.90000,  25, 0, 0.00000, 0.00000,  0.000
115.000, 110.000
     2,     5,     0,'2 ',2,1,1, 6.07500E-4, 0.00000E+0,1,'            ',1,   1,1.0000,   0,1.0000,   0,1.0000,   0,1.0000,'            '
 1.64444E-3, 6.99807E-2,   150.00
236.500, 220.000,   0.000,   150.00,     0.00,     0.00, 0,      0, 1.10000, 0.90000, 1.10000, 0.90000,  25, 0, 0.00000, 0.00000,  0.000
115.000, 110.000
 0 /End of Transformer data, Begin Area interchange data
   8,     0,     0.000,    10.000,'HRVATSKA    '
 0 /End of Area interchange data, Begin Two-terminal dc line data
 0 /End of Two-terminal dc line data, Begin VSC dc line data
 0 /End of VSC dc line data, Begin Impedance correction table data
 0 /End of Impedance correction table data, Begin Multi-terminal dc line data
 0 /End of Multi-terminal dc line data, Begin Multi-section line data
 0 /End of Multi-section line data, Begin Zone data
   1,'REAL        '
   5,'EKV         '
 0 /End of Zone data, Begin Inter-area transfer data
 0 /End of Inter-area transfer data, Begin Owner data
 0 /End of Owner data, Begin FACTS device data
 0 /End of FACTS device data, Begin Switched shunt data
 0 /End of Switched shunt data, Begin GNE device data
 0 /End of GNE device data, Begin Induction machine data
 0 /End of Induction machine data
Q
